Arquivos Simulação/IEEE_Final/IEEE33_bus_Curr_Elem.Txt

CIRCUIT ELEMENT CURRENTS

(Currents into element from indicated bus)

Power Delivery Elements

  Bus     Phase    Magnitude, A     Angle      (Real)   +j  (Imag)

ELEMENT = "Vsource.SOURCE"
SOURCEBUS     1           30.442 /_  179.3 =     -30.44 +j   0.39272
SOURCEBUS     2           30.442 /_   59.3 =      15.56 +j    26.165
SOURCEBUS     3           30.442 /_  -60.7 =      14.88 +j   -26.558
------------
SOURCEBUS     0           30.442 /_   -0.7 =      30.44 +j  -0.39272
SOURCEBUS     0           30.442 /_ -120.7 =     -15.56 +j   -26.165
SOURCEBUS     0           30.442 /_  119.3 =     -14.88 +j    26.558

ELEMENT = "Transformer.SUBXF"
SOURCEBUS     1           30.442 /_   -0.7 =      30.44 +j  -0.39272
SOURCEBUS     2           30.442 /_ -120.7 =     -15.56 +j   -26.165
SOURCEBUS     3           30.442 /_  119.3 =     -14.88 +j    26.558
SOURCEBUS     0                0 /_    0.0 =          0 +j         0
------------
10            1           152.21 /_  149.3 =    -130.83 +j      77.8
10            2           152.21 /_   29.3 =     132.79 +j    74.399
10            3           152.21 /_  -90.7 =    -1.9635 +j    -152.2
10            0      2.9583E-008 /_  -28.2 =  2.6077E-008 +j -1.397E-008

ELEMENT = "Line.LINHA_1"
10            1           150.22 /_  -30.7 =      129.1 +j     -76.8
10            2           150.22 /_ -150.7 =    -131.06 +j   -73.405
10            3           150.22 /_   89.3 =     1.9601 +j    150.21
------------
20            1           150.22 /_  149.2 =    -129.08 +j     76.83
20            2           150.22 /_   29.2 =     131.08 +j    73.375
20            3           150.22 /_  -90.8 =    -1.9953 +j   -150.21

ELEMENT = "Line.LINHA_2"
20            1           133.82 /_  -30.9 =     114.85 +j   -68.692
20            2           133.82 /_ -150.9 =    -116.91 +j   -65.113
20            3           133.82 /_   89.1 =     2.0665 +j     133.8
------------
30            1           133.82 /_  149.1 =    -114.83 +j    68.722
30            2           133.82 /_   29.1 =     116.93 +j    65.082
30            3           133.82 /_  -90.9 =    -2.1015 +j    -133.8

ELEMENT = "Line.LINHA_3"
30            1           92.907 /_  -31.1 =     79.535 +j   -48.021
30            2           92.907 /_ -151.1 =    -81.355 +j   -44.868
30            3           92.907 /_   88.9 =     1.8203 +j     92.89
------------
40            1           92.908 /_  148.9 =    -79.517 +j    48.051
40            2           92.908 /_   28.9 =     81.372 +j    44.838
40            3           92.908 /_  -91.1 =    -1.8551 +j   -92.889

ELEMENT = "Line.LINHA_4"
40            1           89.574 /_  -31.2 =     76.644 +j   -46.359
40            2           89.574 /_ -151.2 =     -78.47 +j   -43.196
40            3           89.574 /_   88.8 =     1.8267 +j    89.555
------------
50            1           89.574 /_  148.8 =    -76.626 +j    46.389
50            2           89.574 /_   28.8 =     78.487 +j    43.165
50            3           89.574 /_  -91.2 =    -1.8613 +j   -89.555

ELEMENT = "Line.LINHA_5"
50            1           86.226 /_  -31.2 =     73.744 +j   -44.684
50            2           86.226 /_ -151.2 =     -75.57 +j   -41.522
50            3           86.226 /_   88.8 =     1.8258 +j    86.206
------------
60            1           86.226 /_  148.8 =    -73.726 +j    44.714
60            2           86.226 /_   28.8 =     75.587 +j    41.492
60            3           86.226 /_  -91.2 =    -1.8602 +j   -86.206

ELEMENT = "Line.LINHA_6"
60            1           44.894 /_  -31.5 =     38.283 +j   -23.449
60            2           44.894 /_ -151.5 =    -39.449 +j   -21.429
60            3           44.894 /_   88.5 =      1.166 +j    44.879
------------
70            1           44.894 /_  148.5 =    -38.265 +j    23.478
70            2           44.894 /_   28.5 =     39.466 +j      21.4
70            3           44.894 /_  -91.5 =    -1.2002 +j   -44.878

ELEMENT = "Line.LINHA_7"
70            1           40.883 /_  -31.6 =     34.836 +j   -21.399
70            2           40.883 /_ -151.6 =     -35.95 +j   -19.469
70            3           40.883 /_   88.4 =     1.1145 +j    40.868
------------
80            1           40.883 /_  148.4 =    -34.818 +j    21.428
80            2           40.883 /_   28.4 =     35.966 +j    19.439
80            3           40.883 /_  -91.6 =    -1.1485 +j   -40.867

ELEMENT = "Line.LINHA_8"
80            1           36.838 /_  -31.6 =     31.371 +j    -19.31
80            2           36.838 /_ -151.6 =    -32.408 +j   -17.514
80            3           36.838 /_   88.4 =     1.0369 +j    36.823
------------
90            1           36.838 /_  148.3 =    -31.354 +j    19.338
90            2           36.838 /_   28.3 =     32.424 +j    17.484
90            3           36.838 /_  -91.7 =    -1.0707 +j   -36.822

ELEMENT = "Line.LINHA_9"
90            1           32.773 /_  -31.7 =     27.898 +j   -17.198
90            2           32.773 /_ -151.7 =    -28.843 +j   -15.561
90            3           32.773 /_   88.3 =    0.94474 +j    32.759
------------
100           1           32.773 /_  148.3 =     -27.88 +j    17.226
100           2           32.773 /_   28.3 =     28.859 +j    15.532
100           3           32.773 /_  -91.7 =    -0.9784 +j   -32.758

ELEMENT = "Line.LINHA_10"
100           1           28.691 /_  -31.7 =     24.416 +j   -15.066
100           2           28.691 /_ -151.7 =    -25.256 +j   -13.612
100           3           28.691 /_   88.3 =     0.8395 +j    28.678
------------
110           1            28.69 /_  148.3 =    -24.399 +j    15.095
110           2            28.69 /_   28.3 =     25.272 +j    13.583
110           3            28.69 /_  -91.7 =   -0.87307 +j   -28.677

ELEMENT = "Line.LINHA_11"
110           1           24.605 /_  -31.7 =     20.933 +j   -12.932
110           2           24.605 /_ -151.7 =    -21.666 +j   -11.662
110           3           24.605 /_   88.3 =    0.73311 +j    24.594
------------
120           1           24.605 /_  148.2 =    -20.915 +j    12.961
120           2           24.605 /_   28.2 =     21.682 +j    11.633
120           3           24.605 /_  -91.8 =   -0.76665 +j   -24.593

ELEMENT = "Line.LINHA_12"
120           1           20.515 /_  -31.7 =     17.446 +j   -10.794
120           2           20.515 /_ -151.7 =    -18.071 +j   -9.7118
120           3           20.515 /_   88.3 =    0.62494 +j    20.506
------------
130           1           20.515 /_  148.2 =    -17.428 +j    10.823
130           2           20.515 /_   28.2 =     18.087 +j    9.6822
130           3           20.515 /_  -91.8 =    -0.6584 +j   -20.505

ELEMENT = "Line.LINHA_13"
130           1            16.41 /_  -31.8 =     13.953 +j   -8.6375
130           2            16.41 /_ -151.8 =    -14.457 +j   -7.7648
130           3            16.41 /_   88.2 =    0.50388 +j    16.402
------------
140           1            16.41 /_  148.1 =    -13.935 +j    8.6658
140           2            16.41 /_   28.1 =     14.472 +j    7.7353
140           3            16.41 /_  -91.9 =   -0.53725 +j   -16.401

ELEMENT = "Line.LINHA_14"
140           1           13.134 /_  -31.8 =     11.164 +j   -6.9181
140           2           13.134 /_ -151.8 =    -11.573 +j   -6.2096
140           3           13.134 /_   88.2 =     0.4091 +j    13.128
------------
150           1           13.134 /_  148.1 =    -11.147 +j    6.9463
150           2           13.134 /_   28.1 =     11.589 +j      6.18
150           3           13.134 /_  -91.9 =   -0.44243 +j   -13.126

ELEMENT = "Line.LINHA_15"
150           1           9.8548 /_  -31.8 =     8.3746 +j   -5.1945
150           2           9.8548 /_ -151.8 =    -8.6859 +j   -4.6554
150           3           9.8548 /_   88.2 =    0.31128 +j    9.8499
------------
160           1           9.8546 /_  148.0 =    -8.3568 +j    5.2227
160           2           9.8546 /_   28.0 =     8.7014 +j    4.6259
160           3           9.8546 /_  -92.0 =   -0.34458 +j   -9.8485

ELEMENT = "Line.LINHA_16"
160           1           6.5725 /_  -31.8 =     5.5835 +j   -3.4674
160           2           6.5725 /_ -151.8 =    -5.7946 +j   -3.1018
160           3           6.5725 /_   88.2 =    0.21106 +j    6.5691
------------
170           1           6.5723 /_  147.9 =    -5.5657 +j    3.4955
170           2           6.5723 /_   27.9 =       5.81 +j    3.0723
170           3           6.5723 /_  -92.1 =   -0.24433 +j   -6.5678

ELEMENT = "Line.LINHA_17"
170           1           3.2868 /_  -31.8 =      2.792 +j   -1.7343
170           2           3.2868 /_ -151.8 =    -2.8979 +j   -1.5508
170           3           3.2868 /_   88.2 =    0.10596 +j    3.2851
------------
180           1           3.2866 /_  147.6 =    -2.7741 +j    1.7624
180           2           3.2866 /_   27.6 =     2.9133 +j    1.5213
180           3           3.2866 /_  -92.4 =   -0.13921 +j   -3.2837

ELEMENT = "Line.LINHA_18"
20            1           14.404 /_  -29.7 =     12.512 +j   -7.1358
20            2           14.404 /_ -149.7 =    -12.436 +j   -7.2679
20            3           14.404 /_   90.3 =  -0.076289 +j    14.404
------------
190           1           14.404 /_  150.2 =    -12.494 +j    7.1661
190           2           14.404 /_   30.2 =     12.453 +j    7.2375
190           3           14.404 /_  -89.8 =   0.041188 +j   -14.404

ELEMENT = "Line.LINHA_19"
190           1           10.809 /_  -29.7 =     9.3864 +j   -5.3601
190           2           10.809 /_ -149.7 =    -9.3352 +j   -5.4488
190           3           10.809 /_   90.3 =  -0.051247 +j    10.809
------------
200           1           10.809 /_  150.1 =    -9.3688 +j    5.3904
200           2           10.809 /_   30.1 =     9.3526 +j    5.4184
200           3           10.809 /_  -89.9 =   0.016185 +j   -10.809

ELEMENT = "Line.LINHA_20"
200           1           7.2073 /_  -29.7 =     6.2579 +j   -3.5753
200           2           7.2073 /_ -149.7 =    -6.2253 +j   -3.6319
200           3           7.2073 /_   90.3 =  -0.032639 +j    7.2072
------------
210           1            7.207 /_  150.0 =    -6.2403 +j    3.6056
210           2            7.207 /_   30.0 =     6.2427 +j    3.6014
210           3            7.207 /_  -90.0 =  -0.0023829 +j    -7.207

ELEMENT = "Line.LINHA_21"
210           1           3.6042 /_  -29.8 =     3.1291 +j   -1.7886
210           2           3.6042 /_ -149.8 =    -3.1135 +j   -1.8156
210           3           3.6042 /_   90.2 =  -0.015577 +j    3.6041
------------
220           1            3.604 /_  149.7 =    -3.1114 +j    1.8188
220           2            3.604 /_   29.7 =     3.1308 +j    1.7852
220           3            3.604 /_  -90.3 =  -0.019433 +j    -3.604

ELEMENT = "Line.LINHA_22"
30            1           37.595 /_  -30.4 =     32.428 +j   -19.022
30            2           37.595 /_ -150.4 =    -32.688 +j   -18.572
30            3           37.595 /_   89.6 =    0.25965 +j    37.595
------------
230           1           37.596 /_  149.6 =     -32.41 +j    19.052
230           2           37.596 /_   29.6 =     32.705 +j    18.542
230           3           37.596 /_  -90.4 =   -0.29444 +j   -37.594

ELEMENT = "Line.LINHA_23"
230           1           25.092 /_  -30.4 =     21.632 +j   -12.715
230           2           25.092 /_ -150.4 =    -21.828 +j   -12.376
230           3           25.092 /_   89.6 =    0.19592 +j    25.091
------------
240           1           25.092 /_  149.5 =    -21.614 +j    12.745
240           2           25.092 /_   29.5 =     21.845 +j    12.346
240           3           25.092 /_  -90.5 =   -0.23063 +j   -25.091

ELEMENT = "Line.LINHA_24"
240           1           12.555 /_  -30.5 =      10.82 +j   -6.3679
240           2           12.555 /_ -150.5 =    -10.925 +j   -6.1864
240           3           12.555 /_   89.5 =     0.1048 +j    12.554
------------
250           1           12.555 /_  149.4 =    -10.802 +j    6.3977
250           2           12.555 /_   29.4 =     10.942 +j    6.1562
250           3           12.555 /_  -90.6 =   -0.13943 +j   -12.554

ELEMENT = "Line.LINHA_25"
60            1           37.955 /_  -31.0 =     32.549 +j   -19.524
60            2           37.955 /_ -151.0 =    -33.182 +j   -18.426
60            3           37.955 /_   89.0 =    0.63343 +j     37.95
------------
260           1           37.955 /_  149.0 =    -32.531 +j    19.553
260           2           37.955 /_   29.0 =     33.199 +j    18.397
260           3           37.955 /_  -91.0 =   -0.66765 +j   -37.949

ELEMENT = "Line.LINHA_26"
260           1           33.243 /_  -31.0 =     28.494 +j   -17.122
260           2           33.243 /_ -151.0 =    -29.075 +j   -16.116
260           3           33.243 /_   89.0 =    0.58063 +j    33.237
------------
270           1           33.243 /_  148.9 =    -28.477 +j    17.151
270           2           33.243 /_   28.9 =     29.091 +j    16.086
270           3           33.243 /_  -91.1 =   -0.61481 +j   -33.237

ELEMENT = "Line.LINHA_27"
270           1           28.524 /_  -31.1 =     24.436 +j   -14.714
270           2           28.524 /_ -151.1 =    -24.961 +j   -13.805
270           3           28.524 /_   88.9 =    0.52489 +j    28.519
------------
280           1           28.524 /_  148.9 =    -24.418 +j    14.743
280           2           28.524 /_   28.9 =     24.977 +j    13.775
280           3           28.524 /_  -91.1 =   -0.55898 +j   -28.519

ELEMENT = "Line.LINHA_28"
280           1           23.788 /_  -31.1 =     20.371 +j   -12.284
280           2           23.788 /_ -151.1 =    -20.824 +j     -11.5
280           3           23.788 /_   88.9 =    0.45315 +j    23.784
------------
290           1           23.788 /_  148.8 =    -20.353 +j    12.313
290           2           23.788 /_   28.8 =      20.84 +j     11.47
290           3           23.788 /_  -91.2 =   -0.48714 +j   -23.783

ELEMENT = "Line.LINHA_29"
290           1           19.041 /_  -31.1 =     16.301 +j   -9.8402
290           2           19.041 /_ -151.1 =    -16.672 +j   -9.1972
290           3           19.041 /_   88.9 =    0.37123 +j    19.037
------------
300           1           19.041 /_  148.8 =    -16.284 +j    9.8691
300           2           19.041 /_   28.8 =     16.689 +j    9.1674
300           3           19.041 /_  -91.2 =   -0.40516 +j   -19.037

ELEMENT = "Line.LINHA_30"
300           1           14.288 /_  -31.1 =     12.228 +j   -7.3904
300           2           14.288 /_ -151.1 =    -12.514 +j   -6.8947
300           3           14.288 /_   88.9 =    0.28618 +j    14.285
------------
310           1           14.288 /_  148.7 =     -12.21 +j    7.4193
310           2           14.288 /_   28.7 =     12.531 +j    6.8649
310           3           14.288 /_  -91.3 =   -0.32006 +j   -14.284

ELEMENT = "Line.LINHA_31"
310           1           9.5268 /_  -31.2 =     8.1524 +j   -4.9293
310           2           9.5268 /_ -151.2 =    -8.3452 +j   -4.5955
310           3           9.5268 /_   88.8 =    0.19272 +j    9.5249
------------
320           1           9.5267 /_  148.6 =    -8.1347 +j    4.9582
320           2           9.5267 /_   28.6 =     8.3613 +j    4.5658
320           3           9.5267 /_  -91.4 =   -0.22656 +j    -9.524

ELEMENT = "Line.LINHA_32"
320           1           4.7639 /_  -31.2 =     4.0762 +j   -2.4656
320           2           4.7639 /_ -151.2 =    -4.1734 +j   -2.2973
320           3           4.7639 /_   88.8 =   0.097127 +j    4.7629
------------
330           1           4.7638 /_  148.4 =    -4.0585 +j    2.4944
330           2           4.7638 /_   28.4 =     4.1895 +j    2.2676
330           3           4.7638 /_  -91.6 =   -0.13096 +j    -4.762

= = = = = = = = = = = = = = = = = = =  = = = = = = = = = = =  = =

Power Conversion Elements

  Bus     Phase    Magnitude, A     Angle      (Real)   +j  (Imag)

ELEMENT = "Load.CARGA_1"
10            1           1.9931 /_  -30.1 =     1.7244 +j  -0.99948
10            2           1.9931 /_ -150.1 =    -1.7278 +j  -0.99365
10            3           1.9931 /_   89.9 =  0.0033671 +j    1.9931
10            0      3.8918E-010 /_  149.8 =  -3.3637E-010 +j 1.9574E-010

ELEMENT = "Load.CARGA_2"
20            1           1.9965 /_  -30.1 =     1.7265 +j   -1.0026
20            2           1.9965 /_ -150.1 =    -1.7315 +j  -0.99386
20            3           1.9965 /_   89.9 =  0.0050501 +j    1.9965
20            0      3.9047E-010 /_  149.7 =  -3.3717E-010 +j 1.9693E-010

ELEMENT = "Load.CARGA_3"
30            1           3.3206 /_  -30.4 =     2.8649 +j   -1.6789
30            2           3.3206 /_ -150.4 =    -2.8864 +j   -1.6416
30            3           3.3206 /_   89.6 =   0.021543 +j    3.3205
30            0      6.5456E-010 /_  149.3 =  -5.6271E-010 +j 3.3438E-010

ELEMENT = "Load.CARGA_4"
40            1           3.3344 /_  -30.5 =     2.8733 +j   -1.6918
40            2           3.3344 /_ -150.5 =    -2.9018 +j   -1.6425
40            3           3.3344 /_   89.5 =   0.028458 +j    3.3343
40            0      6.5995E-010 /_  149.1 =  -5.6603E-010 +j 3.3932E-010

ELEMENT = "Load.CARGA_5"
50            1           3.3483 /_  -30.6 =     2.8818 +j   -1.7048
50            2           3.3483 /_ -150.6 =    -2.9173 +j   -1.6433
50            3           3.3483 /_   89.4 =   0.035505 +j    3.3482
50            0      6.6542E-010 /_  148.8 =  -5.6939E-010 +j 3.4436E-010

ELEMENT = "Load.CARGA_6"
60            1           3.3776 /_  -31.0 =     2.8942 +j   -1.7412
60            2           3.3776 /_ -151.0 =     -2.955 +j   -1.6359
60            3           3.3776 /_   89.0 =   0.060817 +j    3.3771
60            0      6.7704E-010 /_  148.0 =  -5.743E-010 +j 3.5856E-010

ELEMENT = "Load.CARGA_7"
70            1           4.0106 /_  -31.2 =     3.4295 +j   -2.0792
70            2           4.0106 /_ -151.2 =    -3.5154 +j   -1.9304
70            3           4.0106 /_   88.8 =   0.085889 +j    4.0096
70            0      8.0484E-010 /_  147.6 =  -6.7987E-010 +j 4.3075E-010

ELEMENT = "Load.CARGA_8"
80            1           4.0455 /_  -31.6 =     3.4463 +j   -2.1188
80            2           4.0455 /_ -151.6 =     -3.558 +j   -1.9252
80            3           4.0455 /_   88.4 =    0.11177 +j    4.0439
80            0      8.1879E-010 /_  147.0 =  -6.8646E-010 +j 4.4632E-010

ELEMENT = "Load.CARGA_9"
90            1           4.0646 /_  -31.8 =     3.4553 +j   -2.1405
90            2           4.0646 /_ -151.8 =    -3.5814 +j   -1.9221
90            3           4.0646 /_   88.2 =    0.12609 +j    4.0627
90            0      8.2648E-010 /_  146.6 =  -6.9E-010 +j 4.5495E-010

ELEMENT = "Load.CARGA_10"
100           1            4.082 /_  -32.0 =     3.4635 +j   -2.1602
100           2            4.082 /_ -152.0 =    -3.6026 +j   -1.9194
100           3            4.082 /_   88.0 =    0.13905 +j    4.0796
100           0       8.335E-010 /_  146.3 =  -6.9321E-010 +j 4.628E-010

ELEMENT = "Load.CARGA_11"
110           1           4.0849 /_  -32.0 =     3.4655 +j   -2.1626
110           2           4.0849 /_ -152.0 =    -3.6056 +j   -1.9199
110           3           4.0849 /_   88.0 =    0.14012 +j    4.0825
110           0      8.3465E-010 /_  146.2 =  -6.9397E-010 +j 4.6374E-010

ELEMENT = "Load.CARGA_12"
120           1           4.0896 /_  -32.0 =     3.4686 +j   -2.1664
120           2           4.0896 /_ -152.0 =    -3.6105 +j   -1.9207
120           3           4.0896 /_   88.0 =    0.14186 +j    4.0871
120           0      8.3655E-010 /_  146.2 =  -6.9522E-010 +j 4.6528E-010

ELEMENT = "Load.CARGA_13"
130           1           4.1051 /_  -32.2 =     3.4752 +j    -2.185
130           2           4.1051 /_ -152.2 =    -3.6299 +j   -1.9171
130           3           4.1051 /_   87.8 =    0.15469 +j    4.1021
130           0      8.4283E-010 /_  145.9 =  -6.9777E-010 +j 4.7275E-010

ELEMENT = "Load.CARGA_14"
140           1           3.2757 /_  -32.2 =     2.7705 +j   -1.7477
140           2           3.2757 /_ -152.2 =    -2.8988 +j   -1.5255
140           3           3.2757 /_   87.8 =    0.12829 +j    3.2732
140           0      6.7331E-010 /_  145.7 =  -5.5634E-010 +j 3.7924E-010

ELEMENT = "Load.CARGA_15"
150           1           3.2789 /_  -32.3 =     2.7717 +j   -1.7518
150           2           3.2789 /_ -152.3 =     -2.903 +j   -1.5244
150           3           3.2789 /_   87.7 =    0.13129 +j    3.2763
150           0      6.7461E-010 /_  145.6 =  -5.5679E-010 +j 3.809E-010

ELEMENT = "Load.CARGA_16"
160           1           3.2819 /_  -32.3 =      2.773 +j   -1.7554
160           2           3.2819 /_ -152.3 =    -2.9067 +j   -1.5238
160           3           3.2819 /_   87.7 =    0.13366 +j    3.2792
160           0      6.7585E-010 /_  145.5 =  -5.5731E-010 +j 3.8232E-010

ELEMENT = "Load.CARGA_17"
170           1           3.2854 /_  -32.4 =     2.7735 +j   -1.7612
170           2           3.2854 /_ -152.4 =     -2.912 +j   -1.5213
170           3           3.2854 /_   87.6 =    0.13852 +j    3.2825
170           0      6.7729E-010 /_  145.4 =  -5.5744E-010 +j 3.8468E-010

ELEMENT = "Load.CARGA_18"
180           1           3.2864 /_  -32.4 =     2.7739 +j   -1.7624
180           2           3.2864 /_ -152.4 =    -2.9132 +j    -1.521
180           3           3.2864 /_   87.6 =    0.13935 +j    3.2834
180           0      6.7769E-010 /_  145.4 =  -5.576E-010 +j 3.8516E-010

ELEMENT = "Load.CARGA_19"
190           1           3.5947 /_  -30.2 =      3.108 +j    -1.806
190           2           3.5947 /_ -150.2 =    -3.1181 +j   -1.7886
190           3           3.5947 /_   89.8 =   0.010071 +j    3.5946
190           0      7.0324E-010 /_  149.7 =  -6.0706E-010 +j 3.55E-010

ELEMENT = "Load.CARGA_20"
200           1           3.6016 /_  -30.3 =     3.1108 +j   -1.8151
200           2           3.6016 /_ -150.3 =    -3.1273 +j   -1.7865
200           3           3.6016 /_   89.7 =   0.016471 +j    3.6016
200           0      7.0598E-010 /_  149.5 =  -6.0817E-010 +j 3.5852E-010

ELEMENT = "Load.CARGA_21"
210           1           3.6029 /_  -30.3 =     3.1112 +j    -1.817
210           2           3.6029 /_ -150.3 =    -3.1292 +j   -1.7859
210           3           3.6029 /_   89.7 =   0.017978 +j    3.6029
210           0      7.0648E-010 /_  149.4 =  -6.0831E-010 +j 3.5927E-010

ELEMENT = "Load.CARGA_22"
220           1            3.604 /_  -30.3 =     3.1114 +j   -1.8188
220           2            3.604 /_ -150.3 =    -3.1308 +j   -1.7851
220           3            3.604 /_   89.7 =   0.019452 +j    3.6039
220           0      7.0691E-010 /_  149.4 =  -6.0839E-010 +j 3.5999E-010

ELEMENT = "Load.CARGA_23"
230           1           12.503 /_  -30.5 =     10.778 +j   -6.3368
230           2           12.503 /_ -150.5 =    -10.877 +j   -6.1659
230           3           12.503 /_   89.5 =    0.09865 +j    12.503
230           0      2.4696E-009 /_  149.1 =  -2.1196E-009 +j 1.2675E-009

ELEMENT = "Load.CARGA_24"
240           1           12.537 /_  -30.6 =     10.794 +j   -6.3774
240           2           12.537 /_ -150.6 =     -10.92 +j   -6.1592
240           3           12.537 /_   89.4 =      0.126 +j    12.537
240           0      2.4831E-009 /_  148.9 =  -2.1257E-009 +j 1.2834E-009

ELEMENT = "Load.CARGA_25"
250           1           12.554 /_  -30.6 =     10.802 +j   -6.3977
250           2           12.554 /_ -150.6 =    -10.942 +j   -6.1559
250           3           12.554 /_   89.4 =    0.13963 +j    12.554
250           0      2.4899E-009 /_  148.8 =  -2.1288E-009 +j 1.2914E-009

ELEMENT = "Load.CARGA_26"
260           1           4.7126 /_  -31.1 =      4.037 +j   -2.4314
260           2           4.7126 /_ -151.1 =    -4.1241 +j   -2.2805
260           3           4.7126 /_   88.9 =   0.087136 +j    4.7118
260           0      9.4553E-010 /_  148.0 =  -8.0158E-010 +j 5.0149E-010

ELEMENT = "Load.CARGA_27"
270           1           4.7181 /_  -31.1 =     4.0403 +j   -2.4366
270           2           4.7181 /_ -151.1 =    -4.1303 +j   -2.2807
270           3           4.7181 /_   88.9 =   0.090038 +j    4.7173
270           0      9.4771E-010 /_  147.9 =  -8.0286E-010 +j 5.0355E-010

ELEMENT = "Load.CARGA_28"
280           1           4.7357 /_  -31.3 =     4.0472 +j   -2.4591
280           2           4.7357 /_ -151.3 =    -4.1532 +j   -2.2755
280           3           4.7357 /_   88.7 =    0.10598 +j    4.7345
280           0      9.5476E-010 /_  147.5 =  -8.0559E-010 +j 5.1244E-010

ELEMENT = "Load.CARGA_29"
290           1           4.7469 /_  -31.4 =     4.0517 +j   -2.4733
290           2           4.7469 /_ -151.4 =    -4.1678 +j   -2.2722
290           3           4.7469 /_   88.6 =    0.11607 +j    4.7455
290           0      9.5926E-010 /_  147.3 =  -8.0732E-010 +j 5.1809E-010

ELEMENT = "Load.CARGA_30"
300           1           4.7526 /_  -31.4 =      4.055 +j   -2.4787
300           2           4.7526 /_ -151.4 =    -4.1742 +j   -2.2724
300           3           4.7526 /_   88.6 =    0.11914 +j    4.7511
300           0      9.6154E-010 /_  147.2 =  -8.0863E-010 +j 5.2027E-010

ELEMENT = "Load.CARGA_31"
310           1           4.7608 /_  -31.5 =     4.0577 +j     -2.49
310           2           4.7608 /_ -151.5 =    -4.1853 +j   -2.2691
310           3           4.7608 /_   88.5 =    0.12752 +j    4.7591
310           0      9.6485E-010 /_  147.1 =  -8.0967E-010 +j 5.2475E-010

ELEMENT = "Load.CARGA_32"
320           1           4.7626 /_  -31.6 =     4.0582 +j   -2.4926
320           2           4.7626 /_ -151.6 =    -4.1878 +j   -2.2681
320           3           4.7626 /_   88.4 =    0.12962 +j    4.7608
320           0      9.6555E-010 /_  147.0 =  -8.0982E-010 +j 5.2581E-010

ELEMENT = "Load.CARGA_33"
330           1           4.7635 /_  -31.6 =     4.0582 +j   -2.4944
330           2           4.7635 /_ -151.6 =    -4.1893 +j   -2.2673
330           3           4.7635 /_   88.4 =    0.13114 +j    4.7617
330           0      9.6594E-010 /_  147.0 =  -8.0983E-010 +j 5.2651E-010

