Arquivos Simulação/IEEE_Final/IEEE33_bus_Power_elem_kVA.txt

CIRCUIT ELEMENT POWER FLOW

(Power Flow into element from indicated Bus)

Power Delivery Elements

  Bus     Phase     kW     +j   kvar         kVA         PF

ELEMENT = "Vsource.SOURCE"
SOURCEBUS     1     -1272.7 +j    -14.3     1272.8       0.9999
SOURCEBUS     2     -1272.7 +j    -14.3     1272.8       0.9999
SOURCEBUS     3     -1272.7 +j    -14.3     1272.8       0.9999
   TERMINAL TOTAL . -3818.2 +j    -42.9     3818.4       0.9999
SOURCEBUS     0         0.0 +j      0.0        0.0       1.0000
SOURCEBUS     0         0.0 +j      0.0        0.0       1.0000
SOURCEBUS     0         0.0 +j      0.0        0.0       1.0000
   TERMINAL TOTAL .     0.0 +j      0.0        0.0       1.0000

ELEMENT = "Transformer.SUBXF"
SOURCEBUS     1      1272.7 +j     14.3     1272.8       0.9999
SOURCEBUS     2      1272.7 +j     14.3     1272.8       0.9999
SOURCEBUS     3      1272.7 +j     14.3     1272.8       0.9999
SOURCEBUS     0         0.0 +j      0.0        0.0       1.0000
   TERMINAL TOTAL .  3818.2 +j     42.9     3818.4       0.9999
10            1     -1272.7 +j    -14.3     1272.8       0.9999
10            2     -1272.7 +j    -14.3     1272.8       0.9999
10            3     -1272.7 +j    -14.3     1272.8       0.9999
10            0         0.0 +j      0.0        0.0       1.0000
   TERMINAL TOTAL . -3818.1 +j    -42.8     3818.4       0.9999

ELEMENT = "Line.LINHA_1"
10            1      1256.0 +j     14.3     1256.1       0.9999
10            2      1256.0 +j     14.3     1256.1       0.9999
10            3      1256.0 +j     14.3     1256.1       0.9999
   TERMINAL TOTAL .  3768.1 +j     42.8     3768.4       0.9999
20            1     -1254.0 +j    -13.5     1254.0       0.9999
20            2     -1254.0 +j    -13.5     1254.0       0.9999
20            3     -1254.0 +j    -13.5     1254.0       0.9999
   TERMINAL TOTAL . -3761.9 +j    -40.5     3762.1       0.9999

ELEMENT = "Line.LINHA_2"
20            1      1117.1 +j     14.4     1117.1       0.9999
20            2      1117.1 +j     14.4     1117.1       0.9999
20            3      1117.1 +j     14.4     1117.1       0.9999
   TERMINAL TOTAL .  3351.2 +j     43.3     3351.4       0.9999
30            1     -1108.2 +j    -10.2     1108.3       1.0000
30            2     -1108.2 +j    -10.2     1108.3       1.0000
30            3     -1108.2 +j    -10.2     1108.3       1.0000
   TERMINAL TOTAL . -3324.7 +j    -30.7     3324.8       1.0000

ELEMENT = "Line.LINHA_3"
30            1       769.4 +j     10.1      769.4       0.9999
30            2       769.4 +j     10.1      769.4       0.9999
30            3       769.4 +j     10.1      769.4       0.9999
   TERMINAL TOTAL .  2308.1 +j     30.3     2308.3       0.9999
40            1      -766.2 +j     -8.8      766.3       0.9999
40            2      -766.2 +j     -8.8      766.3       0.9999
40            3      -766.2 +j     -8.8      766.3       0.9999
   TERMINAL TOTAL . -2298.6 +j    -26.3     2298.8       0.9999

ELEMENT = "Line.LINHA_4"
40            1       738.7 +j      8.8      738.8       0.9999
40            2       738.7 +j      8.8      738.8       0.9999
40            3       738.7 +j      8.8      738.8       0.9999
   TERMINAL TOTAL .  2216.1 +j     26.3     2216.3       0.9999
50            1      -735.7 +j     -7.5      735.7       0.9999
50            2      -735.7 +j     -7.5      735.7       0.9999
50            3      -735.7 +j     -7.5      735.7       0.9999
   TERMINAL TOTAL . -2207.0 +j    -22.5     2207.1       0.9999

ELEMENT = "Line.LINHA_5"
50            1       708.2 +j      7.5      708.2       0.9999
50            2       708.2 +j      7.5      708.2       0.9999
50            3       708.2 +j      7.5      708.2       0.9999
   TERMINAL TOTAL .  2124.5 +j     22.5     2124.6       0.9999
60            1      -702.1 +j     -2.5      702.1       1.0000
60            2      -702.1 +j     -2.5      702.1       1.0000
60            3      -702.1 +j     -2.5      702.1       1.0000
   TERMINAL TOTAL . -2106.2 +j     -7.6     2106.2       1.0000

ELEMENT = "Line.LINHA_6"
60            1       365.5 +j      2.9      365.5       1.0000
60            2       365.5 +j      2.9      365.5       1.0000
60            3       365.5 +j      2.9      365.5       1.0000
   TERMINAL TOTAL .  1096.6 +j      8.8     1096.6       1.0000
70            1      -365.1 +j     -2.0      365.1       1.0000
70            2      -365.1 +j     -2.0      365.1       1.0000
70            3      -365.1 +j     -2.0      365.1       1.0000
   TERMINAL TOTAL . -1095.4 +j     -5.9     1095.4       1.0000

ELEMENT = "Line.LINHA_7"
70            1       332.5 +j      2.0      332.5       1.0000
70            2       332.5 +j      2.0      332.5       1.0000
70            3       332.5 +j      2.0      332.5       1.0000
   TERMINAL TOTAL .   997.6 +j      5.9      997.6       1.0000
80            1      -329.7 +j     -0.2      329.7       1.0000
80            2      -329.7 +j     -0.2      329.7       1.0000
80            3      -329.7 +j     -0.2      329.7       1.0000
   TERMINAL TOTAL .  -989.0 +j     -0.5      989.0       1.0000

ELEMENT = "Line.LINHA_8"
80            1       297.0 +j      0.2      297.0       1.0000
80            2       297.0 +j      0.2      297.0       1.0000
80            3       297.0 +j      0.2      297.0       1.0000
   TERMINAL TOTAL .   891.1 +j      0.5      891.1       1.0000
90            1      -295.6 +j      0.6      295.6      -1.0000
90            2      -295.6 +j      0.6      295.6      -1.0000
90            3      -295.6 +j      0.6      295.6      -1.0000
   TERMINAL TOTAL .  -886.9 +j      1.7      886.9      -1.0000

ELEMENT = "Line.LINHA_9"
90            1       263.0 +j     -0.6      263.0      -1.0000
90            2       263.0 +j     -0.6      263.0      -1.0000
90            3       263.0 +j     -0.6      263.0      -1.0000
   TERMINAL TOTAL .   789.1 +j     -1.7      789.1      -1.0000
100           1      -261.9 +j      1.1      261.9      -1.0000
100           2      -261.9 +j      1.1      261.9      -1.0000
100           3      -261.9 +j      1.1      261.9      -1.0000
   TERMINAL TOTAL .  -785.7 +j      3.3      785.7      -1.0000

ELEMENT = "Line.LINHA_10"
100           1       229.3 +j     -1.1      229.3      -1.0000
100           2       229.3 +j     -1.1      229.3      -1.0000
100           3       229.3 +j     -1.1      229.3      -1.0000
   TERMINAL TOTAL .   687.8 +j     -3.3      687.8      -1.0000
110           1      -229.1 +j      0.9      229.1      -1.0000
110           2      -229.1 +j      0.9      229.1      -1.0000
110           3      -229.1 +j      0.9      229.1      -1.0000
   TERMINAL TOTAL .  -687.3 +j      2.6      687.3      -1.0000

ELEMENT = "Line.LINHA_11"
110           1       196.5 +j     -0.9      196.5      -1.0000
110           2       196.5 +j     -0.9      196.5      -1.0000
110           3       196.5 +j     -0.9      196.5      -1.0000
   TERMINAL TOTAL .   589.5 +j     -2.6      589.5      -1.0000
120           1      -196.3 +j      0.7      196.3      -1.0000
120           2      -196.3 +j      0.7      196.3      -1.0000
120           3      -196.3 +j      0.7      196.3      -1.0000
   TERMINAL TOTAL .  -588.8 +j      2.1      588.8      -1.0000

ELEMENT = "Line.LINHA_12"
120           1       163.6 +j     -0.7      163.6      -1.0000
120           2       163.6 +j     -0.7      163.6      -1.0000
120           3       163.6 +j     -0.7      163.6      -1.0000
   TERMINAL TOTAL .   490.9 +j     -2.1      490.9      -1.0000
130           1      -163.0 +j      0.9      163.0      -1.0000
130           2      -163.0 +j      0.9      163.0      -1.0000
130           3      -163.0 +j      0.9      163.0      -1.0000
   TERMINAL TOTAL .  -489.1 +j      2.7      489.1      -1.0000

ELEMENT = "Line.LINHA_13"
130           1       130.4 +j     -0.9      130.4      -1.0000
130           2       130.4 +j     -0.9      130.4      -1.0000
130           3       130.4 +j     -0.9      130.4      -1.0000
   TERMINAL TOTAL .   391.2 +j     -2.7      391.2      -1.0000
140           1      -130.3 +j      0.8      130.3      -1.0000
140           2      -130.3 +j      0.8      130.3      -1.0000
140           3      -130.3 +j      0.8      130.3      -1.0000
   TERMINAL TOTAL .  -390.8 +j      2.5      390.8      -1.0000

ELEMENT = "Line.LINHA_14"
140           1       104.3 +j     -0.8      104.3      -1.0000
140           2       104.3 +j     -0.8      104.3      -1.0000
140           3       104.3 +j     -0.8      104.3      -1.0000
   TERMINAL TOTAL .   312.8 +j     -2.5      312.8      -1.0000
150           1      -104.1 +j      0.7      104.2      -1.0000
150           2      -104.1 +j      0.7      104.2      -1.0000
150           3      -104.1 +j      0.7      104.2      -1.0000
   TERMINAL TOTAL .  -312.4 +j      2.0      312.5      -1.0000

ELEMENT = "Line.LINHA_15"
150           1        78.1 +j     -0.7       78.1      -1.0000
150           2        78.1 +j     -0.7       78.1      -1.0000
150           3        78.1 +j     -0.7       78.1      -1.0000
   TERMINAL TOTAL .   234.4 +j     -2.0      234.4      -1.0000
160           1       -78.1 +j      0.4       78.1      -1.0000
160           2       -78.1 +j      0.4       78.1      -1.0000
160           3       -78.1 +j      0.4       78.1      -1.0000
   TERMINAL TOTAL .  -234.2 +j      1.3      234.2      -1.0000

ELEMENT = "Line.LINHA_16"
160           1        52.1 +j     -0.4       52.1      -1.0000
160           2        52.1 +j     -0.4       52.1      -1.0000
160           3        52.1 +j     -0.4       52.1      -1.0000
   TERMINAL TOTAL .   156.2 +j     -1.3      156.2      -1.0000
170           1       -52.0 +j      0.3       52.0      -1.0000
170           2       -52.0 +j      0.3       52.0      -1.0000
170           3       -52.0 +j      0.3       52.0      -1.0000
   TERMINAL TOTAL .  -156.0 +j      0.8      156.0      -1.0000

ELEMENT = "Line.LINHA_17"
170           1        26.0 +j     -0.3       26.0      -1.0000
170           2        26.0 +j     -0.3       26.0      -1.0000
170           3        26.0 +j     -0.3       26.0      -1.0000
   TERMINAL TOTAL .    78.0 +j     -0.8       78.0      -1.0000
180           1       -26.0 +j     -0.0       26.0       1.0000
180           2       -26.0 +j     -0.0       26.0       1.0000
180           3       -26.0 +j     -0.0       26.0       1.0000
   TERMINAL TOTAL .   -78.0 +j     -0.0       78.0       1.0000

ELEMENT = "Line.LINHA_18"
20            1       120.2 +j     -0.9      120.2      -1.0000
20            2       120.2 +j     -0.9      120.2      -1.0000
20            3       120.2 +j     -0.9      120.2      -1.0000
   TERMINAL TOTAL .   360.7 +j     -2.8      360.7      -1.0000
190           1      -120.2 +j      0.7      120.2      -1.0000
190           2      -120.2 +j      0.7      120.2      -1.0000
190           3      -120.2 +j      0.7      120.2      -1.0000
   TERMINAL TOTAL .  -360.6 +j      2.0      360.6      -1.0000

ELEMENT = "Line.LINHA_19"
190           1        90.2 +j     -0.7       90.2      -1.0000
190           2        90.2 +j     -0.7       90.2      -1.0000
190           3        90.2 +j     -0.7       90.2      -1.0000
   TERMINAL TOTAL .   270.6 +j     -2.0      270.6      -1.0000
200           1       -90.0 +j      0.5       90.0      -1.0000
200           2       -90.0 +j      0.5       90.0      -1.0000
200           3       -90.0 +j      0.5       90.0      -1.0000
   TERMINAL TOTAL .  -270.1 +j      1.6      270.1      -1.0000

ELEMENT = "Line.LINHA_20"
200           1        60.0 +j     -0.5       60.0      -1.0000
200           2        60.0 +j     -0.5       60.0      -1.0000
200           3        60.0 +j     -0.5       60.0      -1.0000
   TERMINAL TOTAL .   180.1 +j     -1.6      180.1      -1.0000
210           1       -60.0 +j      0.3       60.0      -1.0000
210           2       -60.0 +j      0.3       60.0      -1.0000
210           3       -60.0 +j      0.3       60.0      -1.0000
   TERMINAL TOTAL .  -180.0 +j      0.8      180.0      -1.0000

ELEMENT = "Line.LINHA_21"
210           1        30.0 +j     -0.3       30.0      -1.0000
210           2        30.0 +j     -0.3       30.0      -1.0000
210           3        30.0 +j     -0.3       30.0      -1.0000
   TERMINAL TOTAL .    90.0 +j     -0.8       90.0      -1.0000
220           1       -30.0 +j      0.0       30.0      -1.0000
220           2       -30.0 +j      0.0       30.0      -1.0000
220           3       -30.0 +j      0.0       30.0      -1.0000
   TERMINAL TOTAL .   -90.0 +j      0.0       90.0      -1.0000

ELEMENT = "Line.LINHA_22"
30            1       311.4 +j      0.1      311.4       1.0000
30            2       311.4 +j      0.1      311.4       1.0000
30            3       311.4 +j      0.1      311.4       1.0000
   TERMINAL TOTAL .   934.1 +j      0.4      934.1       1.0000
230           1      -310.7 +j      0.0      310.7      -1.0000
230           2      -310.7 +j      0.0      310.7      -1.0000
230           3      -310.7 +j      0.0      310.7      -1.0000
   TERMINAL TOTAL .  -932.2 +j      0.0      932.2      -1.0000

ELEMENT = "Line.LINHA_23"
230           1       207.4 +j     -0.0      207.4      -1.0000
230           2       207.4 +j     -0.0      207.4      -1.0000
230           3       207.4 +j     -0.0      207.4      -1.0000
   TERMINAL TOTAL .   622.1 +j     -0.0      622.1      -1.0000
240           1      -206.8 +j      0.2      206.8      -1.0000
240           2      -206.8 +j      0.2      206.8      -1.0000
240           3      -206.8 +j      0.2      206.8      -1.0000
   TERMINAL TOTAL .  -620.5 +j      0.5      620.5      -1.0000

ELEMENT = "Line.LINHA_24"
240           1       103.5 +j     -0.2      103.5      -1.0000
240           2       103.5 +j     -0.2      103.5      -1.0000
240           3       103.5 +j     -0.2      103.5      -1.0000
   TERMINAL TOTAL .   310.4 +j     -0.5      310.4      -1.0000
250           1      -103.3 +j      0.0      103.3      -1.0000
250           2      -103.3 +j      0.0      103.3      -1.0000
250           3      -103.3 +j      0.0      103.3      -1.0000
   TERMINAL TOTAL .  -310.0 +j      0.0      310.0      -1.0000

ELEMENT = "Line.LINHA_25"
60            1       309.0 +j     -0.4      309.0      -1.0000
60            2       309.0 +j     -0.4      309.0      -1.0000
60            3       309.0 +j     -0.4      309.0      -1.0000
   TERMINAL TOTAL .   927.1 +j     -1.2      927.1      -1.0000
260           1      -308.7 +j      0.3      308.7      -1.0000
260           2      -308.7 +j      0.3      308.7      -1.0000
260           3      -308.7 +j      0.3      308.7      -1.0000
   TERMINAL TOTAL .  -926.2 +j      0.8      926.2      -1.0000

ELEMENT = "Line.LINHA_26"
260           1       270.4 +j     -0.3      270.4      -1.0000
260           2       270.4 +j     -0.3      270.4      -1.0000
260           3       270.4 +j     -0.3      270.4      -1.0000
   TERMINAL TOTAL .   811.2 +j     -0.8      811.2      -1.0000
270           1      -270.1 +j      0.2      270.1      -1.0000
270           2      -270.1 +j      0.2      270.1      -1.0000
270           3      -270.1 +j      0.2      270.1      -1.0000
   TERMINAL TOTAL .  -810.3 +j      0.5      810.3      -1.0000

ELEMENT = "Line.LINHA_27"
270           1       231.8 +j     -0.2      231.8      -1.0000
270           2       231.8 +j     -0.2      231.8      -1.0000
270           3       231.8 +j     -0.2      231.8      -1.0000
   TERMINAL TOTAL .   695.3 +j     -0.5      695.3      -1.0000
280           1      -230.9 +j      0.6      230.9      -1.0000
280           2      -230.9 +j      0.6      230.9      -1.0000
280           3      -230.9 +j      0.6      230.9      -1.0000
   TERMINAL TOTAL .  -692.7 +j      1.9      692.7      -1.0000

ELEMENT = "Line.LINHA_28"
280           1       192.6 +j     -0.6      192.6      -1.0000
280           2       192.6 +j     -0.6      192.6      -1.0000
280           3       192.6 +j     -0.6      192.6      -1.0000
   TERMINAL TOTAL .   577.7 +j     -1.9      577.7      -1.0000
290           1      -192.1 +j      0.8      192.1      -1.0000
290           2      -192.1 +j      0.8      192.1      -1.0000
290           3      -192.1 +j      0.8      192.1      -1.0000
   TERMINAL TOTAL .  -576.3 +j      2.3      576.3      -1.0000

ELEMENT = "Line.LINHA_29"
290           1       153.8 +j     -0.8      153.8      -1.0000
290           2       153.8 +j     -0.8      153.8      -1.0000
290           3       153.8 +j     -0.8      153.8      -1.0000
   TERMINAL TOTAL .   461.3 +j     -2.3      461.3      -1.0000
300           1      -153.6 +j      0.6      153.6      -1.0000
300           2      -153.6 +j      0.6      153.6      -1.0000
300           3      -153.6 +j      0.6      153.6      -1.0000
   TERMINAL TOTAL .  -460.8 +j      1.7      460.8      -1.0000

ELEMENT = "Line.LINHA_30"
300           1       115.2 +j     -0.6      115.2      -1.0000
300           2       115.2 +j     -0.6      115.2      -1.0000
300           3       115.2 +j     -0.6      115.2      -1.0000
   TERMINAL TOTAL .   345.7 +j     -1.7      345.7      -1.0000
310           1      -115.0 +j      0.5      115.0      -1.0000
310           2      -115.0 +j      0.5      115.0      -1.0000
310           3      -115.0 +j      0.5      115.0      -1.0000
   TERMINAL TOTAL .  -345.1 +j      1.5      345.1      -1.0000

ELEMENT = "Line.LINHA_31"
310           1        76.7 +j     -0.5       76.7      -1.0000
310           2        76.7 +j     -0.5       76.7      -1.0000
310           3        76.7 +j     -0.5       76.7      -1.0000
   TERMINAL TOTAL .   230.1 +j     -1.5      230.1      -1.0000
320           1       -76.7 +j      0.3       76.7      -1.0000
320           2       -76.7 +j      0.3       76.7      -1.0000
320           3       -76.7 +j      0.3       76.7      -1.0000
   TERMINAL TOTAL .  -230.0 +j      0.8      230.1      -1.0000

ELEMENT = "Line.LINHA_32"
320           1        38.3 +j     -0.3       38.3      -1.0000
320           2        38.3 +j     -0.3       38.3      -1.0000
320           3        38.3 +j     -0.3       38.3      -1.0000
   TERMINAL TOTAL .   115.0 +j     -0.8      115.0      -1.0000
330           1       -38.3 +j      0.0       38.3      -1.0000
330           2       -38.3 +j      0.0       38.3      -1.0000
330           3       -38.3 +j      0.0       38.3      -1.0000
   TERMINAL TOTAL .  -115.0 +j      0.0      115.0      -1.0000

= = = = = = = = = = = = = = = = = = =  = = = = = = = = = = =  = =

Power Conversion Elements

  Bus     Phase     kW   +j  kvar         kVA         PF

ELEMENT = "Load.CARGA_1"
10            1      16.7 +j    0.0       16.7       1.0000
10            2      16.7 +j    0.0       16.7       1.0000
10            3      16.7 +j    0.0       16.7       1.0000
10            0       0.0 +j    0.0        0.0       1.0000
  TERMINAL TOTAL  .    50.0 +j      0.0       50.0       1.0000

ELEMENT = "Load.CARGA_2"
20            1      16.7 +j    0.0       16.7       1.0000
20            2      16.7 +j    0.0       16.7       1.0000
20            3      16.7 +j    0.0       16.7       1.0000
20            0       0.0 +j    0.0        0.0       1.0000
  TERMINAL TOTAL  .    50.0 +j      0.0       50.0       1.0000

ELEMENT = "Load.CARGA_3"
30            1      27.5 +j    0.0       27.5       1.0000
30            2      27.5 +j    0.0       27.5       1.0000
30            3      27.5 +j    0.0       27.5       1.0000
30            0       0.0 +j    0.0        0.0       1.0000
  TERMINAL TOTAL  .    82.5 +j      0.0       82.5       1.0000

ELEMENT = "Load.CARGA_4"
40            1      27.5 +j    0.0       27.5       1.0000
40            2      27.5 +j    0.0       27.5       1.0000
40            3      27.5 +j    0.0       27.5       1.0000
40            0       0.0 +j    0.0        0.0       1.0000
  TERMINAL TOTAL  .    82.5 +j      0.0       82.5       1.0000

ELEMENT = "Load.CARGA_5"
50            1      27.5 +j    0.0       27.5       1.0000
50            2      27.5 +j    0.0       27.5       1.0000
50            3      27.5 +j    0.0       27.5       1.0000
50            0       0.0 +j    0.0        0.0       1.0000
  TERMINAL TOTAL  .    82.5 +j      0.0       82.5       1.0000

ELEMENT = "Load.CARGA_6"
60            1      27.5 +j    0.0       27.5       1.0000
60            2      27.5 +j    0.0       27.5       1.0000
60            3      27.5 +j    0.0       27.5       1.0000
60            0       0.0 +j    0.0        0.0       1.0000
  TERMINAL TOTAL  .    82.5 +j      0.0       82.5       1.0000

ELEMENT = "Load.CARGA_7"
70            1      32.6 +j    0.0       32.6       1.0000
70            2      32.6 +j    0.0       32.6       1.0000
70            3      32.6 +j    0.0       32.6       1.0000
70            0       0.0 +j    0.0        0.0       1.0000
  TERMINAL TOTAL  .    97.9 +j      0.0       97.9       1.0000

ELEMENT = "Load.CARGA_8"
80            1      32.6 +j    0.0       32.6       1.0000
80            2      32.6 +j    0.0       32.6       1.0000
80            3      32.6 +j    0.0       32.6       1.0000
80            0       0.0 +j    0.0        0.0       1.0000
  TERMINAL TOTAL  .    97.9 +j      0.0       97.9       1.0000

ELEMENT = "Load.CARGA_9"
90            1      32.6 +j    0.0       32.6       1.0000
90            2      32.6 +j    0.0       32.6       1.0000
90            3      32.6 +j    0.0       32.6       1.0000
90            0       0.0 +j    0.0        0.0       1.0000
  TERMINAL TOTAL  .    97.9 +j      0.0       97.9       1.0000

ELEMENT = "Load.CARGA_10"
100           1      32.6 +j    0.0       32.6       1.0000
100           2      32.6 +j    0.0       32.6       1.0000
100           3      32.6 +j    0.0       32.6       1.0000
100           0       0.0 +j    0.0        0.0       1.0000
  TERMINAL TOTAL  .    97.9 +j      0.0       97.9       1.0000

ELEMENT = "Load.CARGA_11"
110           1      32.6 +j    0.0       32.6       1.0000
110           2      32.6 +j    0.0       32.6       1.0000
110           3      32.6 +j    0.0       32.6       1.0000
110           0       0.0 +j    0.0        0.0       1.0000
  TERMINAL TOTAL  .    97.9 +j      0.0       97.9       1.0000

ELEMENT = "Load.CARGA_12"
120           1      32.6 +j    0.0       32.6       1.0000
120           2      32.6 +j    0.0       32.6       1.0000
120           3      32.6 +j    0.0       32.6       1.0000
120           0       0.0 +j    0.0        0.0       1.0000
  TERMINAL TOTAL  .    97.9 +j      0.0       97.9       1.0000

ELEMENT = "Load.CARGA_13"
130           1      32.6 +j    0.0       32.6       1.0000
130           2      32.6 +j    0.0       32.6       1.0000
130           3      32.6 +j    0.0       32.6       1.0000
130           0       0.0 +j    0.0        0.0       1.0000
  TERMINAL TOTAL  .    97.9 +j      0.0       97.9       1.0000

ELEMENT = "Load.CARGA_14"
140           1      26.0 +j    0.0       26.0       1.0000
140           2      26.0 +j    0.0       26.0       1.0000
140           3      26.0 +j    0.0       26.0       1.0000
140           0       0.0 +j    0.0        0.0       1.0000
  TERMINAL TOTAL  .    78.0 +j      0.0       78.0       1.0000

ELEMENT = "Load.CARGA_15"
150           1      26.0 +j    0.0       26.0       1.0000
150           2      26.0 +j    0.0       26.0       1.0000
150           3      26.0 +j    0.0       26.0       1.0000
150           0       0.0 +j    0.0        0.0       1.0000
  TERMINAL TOTAL  .    78.0 +j      0.0       78.0       1.0000

ELEMENT = "Load.CARGA_16"
160           1      26.0 +j    0.0       26.0       1.0000
160           2      26.0 +j    0.0       26.0       1.0000
160           3      26.0 +j    0.0       26.0       1.0000
160           0       0.0 +j    0.0        0.0       1.0000
  TERMINAL TOTAL  .    78.0 +j      0.0       78.0       1.0000

ELEMENT = "Load.CARGA_17"
170           1      26.0 +j    0.0       26.0       1.0000
170           2      26.0 +j    0.0       26.0       1.0000
170           3      26.0 +j    0.0       26.0       1.0000
170           0       0.0 +j    0.0        0.0       1.0000
  TERMINAL TOTAL  .    78.0 +j      0.0       78.0       1.0000

ELEMENT = "Load.CARGA_18"
180           1      26.0 +j    0.0       26.0       1.0000
180           2      26.0 +j    0.0       26.0       1.0000
180           3      26.0 +j    0.0       26.0       1.0000
180           0       0.0 +j    0.0        0.0       1.0000
  TERMINAL TOTAL  .    78.0 +j      0.0       78.0       1.0000

ELEMENT = "Load.CARGA_19"
190           1      30.0 +j    0.0       30.0       1.0000
190           2      30.0 +j    0.0       30.0       1.0000
190           3      30.0 +j    0.0       30.0       1.0000
190           0       0.0 +j    0.0        0.0       1.0000
  TERMINAL TOTAL  .    90.0 +j      0.0       90.0       1.0000

ELEMENT = "Load.CARGA_20"
200           1      30.0 +j    0.0       30.0       1.0000
200           2      30.0 +j    0.0       30.0       1.0000
200           3      30.0 +j    0.0       30.0       1.0000
200           0       0.0 +j    0.0        0.0       1.0000
  TERMINAL TOTAL  .    90.0 +j      0.0       90.0       1.0000

ELEMENT = "Load.CARGA_21"
210           1      30.0 +j    0.0       30.0       1.0000
210           2      30.0 +j    0.0       30.0       1.0000
210           3      30.0 +j    0.0       30.0       1.0000
210           0       0.0 +j    0.0        0.0       1.0000
  TERMINAL TOTAL  .    90.0 +j      0.0       90.0       1.0000

ELEMENT = "Load.CARGA_22"
220           1      30.0 +j    0.0       30.0       1.0000
220           2      30.0 +j    0.0       30.0       1.0000
220           3      30.0 +j    0.0       30.0       1.0000
220           0       0.0 +j    0.0        0.0       1.0000
  TERMINAL TOTAL  .    90.0 +j      0.0       90.0       1.0000

ELEMENT = "Load.CARGA_23"
230           1     103.3 +j    0.0      103.3       1.0000
230           2     103.3 +j    0.0      103.3       1.0000
230           3     103.3 +j    0.0      103.3       1.0000
230           0       0.0 +j    0.0        0.0       1.0000
  TERMINAL TOTAL  .   310.0 +j      0.0      310.0       1.0000

ELEMENT = "Load.CARGA_24"
240           1     103.3 +j    0.0      103.3       1.0000
240           2     103.3 +j    0.0      103.3       1.0000
240           3     103.3 +j    0.0      103.3       1.0000
240           0       0.0 +j    0.0        0.0       1.0000
  TERMINAL TOTAL  .   310.0 +j      0.0      310.0       1.0000

ELEMENT = "Load.CARGA_25"
250           1     103.3 +j    0.0      103.3       1.0000
250           2     103.3 +j    0.0      103.3       1.0000
250           3     103.3 +j    0.0      103.3       1.0000
250           0       0.0 +j    0.0        0.0       1.0000
  TERMINAL TOTAL  .   310.0 +j      0.0      310.0       1.0000

ELEMENT = "Load.CARGA_26"
260           1      38.3 +j    0.0       38.3       1.0000
260           2      38.3 +j    0.0       38.3       1.0000
260           3      38.3 +j    0.0       38.3       1.0000
260           0       0.0 +j    0.0        0.0       1.0000
  TERMINAL TOTAL  .   115.0 +j      0.0      115.0       1.0000

ELEMENT = "Load.CARGA_27"
270           1      38.3 +j    0.0       38.3       1.0000
270           2      38.3 +j    0.0       38.3       1.0000
270           3      38.3 +j    0.0       38.3       1.0000
270           0       0.0 +j    0.0        0.0       1.0000
  TERMINAL TOTAL  .   115.0 +j      0.0      115.0       1.0000

ELEMENT = "Load.CARGA_28"
280           1      38.3 +j    0.0       38.3       1.0000
280           2      38.3 +j    0.0       38.3       1.0000
280           3      38.3 +j    0.0       38.3       1.0000
280           0       0.0 +j    0.0        0.0       1.0000
  TERMINAL TOTAL  .   115.0 +j      0.0      115.0       1.0000

ELEMENT = "Load.CARGA_29"
290           1      38.3 +j    0.0       38.3       1.0000
290           2      38.3 +j    0.0       38.3       1.0000
290           3      38.3 +j    0.0       38.3       1.0000
290           0       0.0 +j    0.0        0.0       1.0000
  TERMINAL TOTAL  .   115.0 +j      0.0      115.0       1.0000

ELEMENT = "Load.CARGA_30"
300           1      38.3 +j    0.0       38.3       1.0000
300           2      38.3 +j    0.0       38.3       1.0000
300           3      38.3 +j    0.0       38.3       1.0000
300           0       0.0 +j    0.0        0.0       1.0000
  TERMINAL TOTAL  .   115.0 +j      0.0      115.0       1.0000

ELEMENT = "Load.CARGA_31"
310           1      38.3 +j    0.0       38.3       1.0000
310           2      38.3 +j    0.0       38.3       1.0000
310           3      38.3 +j    0.0       38.3       1.0000
310           0       0.0 +j    0.0        0.0       1.0000
  TERMINAL TOTAL  .   115.0 +j      0.0      115.0       1.0000

ELEMENT = "Load.CARGA_32"
320           1      38.3 +j    0.0       38.3       1.0000
320           2      38.3 +j    0.0       38.3       1.0000
320           3      38.3 +j    0.0       38.3       1.0000
320           0       0.0 +j    0.0        0.0       1.0000
  TERMINAL TOTAL  .   115.0 +j      0.0      115.0       1.0000

ELEMENT = "Load.CARGA_33"
330           1      38.3 +j    0.0       38.3       1.0000
330           2      38.3 +j    0.0       38.3       1.0000
330           3      38.3 +j    0.0       38.3       1.0000
330           0       0.0 +j    0.0        0.0       1.0000
  TERMINAL TOTAL  .   115.0 +j      0.0      115.0       1.0000


Total Circuit Losses =  102.9 +j   42.9
